 xtb: 6.6.1 (8d0f1dd)
          09042616163D

  9 10  0     0  0            999 V2000
    1.4328    0.2021    0.2810 N   0  0  0  0  0  0  0  0  0  0  0  0
    0.5719    1.2481   -0.2764 N   0  0  0  0  0  0  0  0  0  0  0  0
   -0.6374    1.0478   -0.1216 N   0  0  0  0  0  0  0  0  0  0  0  0
   -1.1742   -0.0858    0.2862 N   0  0  0  0  0  0  0  0  0  0  0  0
   -0.3864   -1.1175    0.0099 N   0  0  0  0  0  0  0  0  0  0  0  0
    0.8410   -1.0446   -0.1309 N   0  0  0  0  0  0  0  0  0  0  0  0
    2.7241    0.3013   -0.1933 N   0  0  0  0  0  0  0  0  0  0  0  0
    3.6378    0.8304    0.3518 N   0  0  0  0  0  0  0  0  0  0  0  0
    4.6728    1.2513    0.5830 N   0  0  0  0  0  0  0  0  0  0  0  0
  1  2  1  0  0  0  0
  2  3  2  0  0  0  0
  3  4  4  0  0  0  0
  4  5  4  0  0  0  0
  1  6  1  0  0  0  0
  5  6  2  0  0  0  0
  1  7  1  0  0  0  0
  7  8  2  0  0  0  0
  7  9  1  0  0  0  0
  8  9  2  0  0  0  0
M  CHG  1   1  -1
M  END
