 xtb: 6.6.1 (8d0f1dd)
          09042616163D

  6  7  0     0  0            999 V2000
    0.1129    0.0000   -0.0042 N   0  0  0  0  0  0  0  0  0  0  0  0
   -0.9876    0.7446    0.0008 N   0  0  0  0  0  0  0  0  0  0  0  0
   -0.9876   -0.7446    0.0008 N   0  0  0  0  0  0  0  0  0  0  0  0
    1.3371    0.0000    0.0041 N   0  0  0  0  0  0  0  0  0  0  0  0
    2.4376   -0.7446   -0.0007 N   0  0  0  0  0  0  0  0  0  0  0  0
    2.4376    0.7446   -0.0007 N   0  0  0  0  0  0  0  0  0  0  0  0
  1  2  1  0  0  0  0
  1  3  1  0  0  0  0
  2  3  1  0  0  0  0
  1  4  4  0  0  0  0
  4  5  1  0  0  0  0
  4  6  1  0  0  0  0
  5  6  1  0  0  0  0
M  CHG  1   1  -1
M  END
