 xtb: 6.6.1 (8d0f1dd)
          09042616163D

 10 11  0     0  0            999 V2000
    1.7129   -0.0806   -0.0556 N   0  0  0  0  0  0  0  0  0  0  0  0
    1.2405    1.2143   -0.1426 N   0  0  0  0  0  0  0  0  0  0  0  0
    0.0424    1.3584    0.2155 N   0  0  0  0  0  0  0  0  0  0  0  0
   -0.7286    0.3653    0.4987 N   0  0  0  0  0  0  0  0  0  0  0  0
   -0.3919   -0.7462   -0.0904 N   0  0  0  0  0  0  0  0  0  0  0  0
    0.7837   -0.9966   -0.4391 N   0  0  0  0  0  0  0  0  0  0  0  0
    2.9029   -0.4022    0.2255 N   0  0  0  0  0  0  0  0  0  0  0  0
    3.7687    0.5231    0.4882 N   0  0  0  0  0  0  0  0  0  0  0  0
    3.7135    1.7287    0.4754 N   0  0  0  0  0  0  0  0  0  0  0  0
    3.9612    2.8203    0.5596 N   0  0  0  0  0  0  0  0  0  0  0  0
  1  2  1  0  0  0  0
  2  3  2  0  0  0  0
  3  4  4  0  0  0  0
  4  5  4  0  0  0  0
  1  6  1  0  0  0  0
  5  6  2  0  0  0  0
  1  7  4  0  0  0  0
  7  8  4  0  0  0  0
  8  9  4  0  0  0  0
  8 10  1  0  0  0  0
  9 10  2  0  0  0  0
M  END
