 xtb: 6.6.1 (8d0f1dd)
          09042616163D

 10 12  0     0  0            999 V2000
    5.6715   -0.4640    2.3373 N   0  0  0  0  0  0  0  0  0  0  0  0
   -7.1224    0.4598    0.3135 N   0  0  0  0  0  0  0  0  0  0  0  0
    5.5820   -1.0343    1.2544 N   0  0  0  0  0  0  0  0  0  0  0  0
    5.3739    0.1358    3.2408 N   0  0  0  0  0  0  0  0  0  0  0  0
   -6.5310    0.8388   -0.5644 N   0  0  0  0  0  0  0  0  0  0  0  0
    6.3676   -1.6706    0.5588 N   0  0  0  0  0  0  0  0  0  0  0  0
   -4.9418    1.9150   -3.3492 N   0  0  0  0  0  0  0  0  0  0  0  0
   -5.5934    1.2859   -1.2179 N   0  0  0  0  0  0  0  0  0  0  0  0
    6.7641   -2.2719   -0.3045 N   0  0  0  0  0  0  0  0  0  0  0  0
   -5.4391    1.5685   -2.4022 N   0  0  0  0  0  0  0  0  0  0  0  0
  1  3  4  0  0  0  0
  1  4  2  0  0  0  0
  3  4  1  0  0  0  0
  2  5  2  0  0  0  0
  3  6  4  0  0  0  0
  2  8  1  0  0  0  0
  5  8  4  0  0  0  0
  7  8  1  0  0  0  0
  3  9  1  0  0  0  0
  6  9  2  0  0  0  0
  7 10  2  0  0  0  0
  8 10  4  0  0  0  0
M  CHG  1   1   1
M  END
