 xtb: 6.6.1 (8d0f1dd)
          09042616163D

  6  7  0     0  0            999 V2000
    0.2803   -0.1720   -0.0003 N   0  0  0  0  0  0  0  0  0  0  0  0
    1.2161    0.4365    0.0001 N   0  0  0  0  0  0  0  0  0  0  0  0
    2.0254    1.3381    0.0002 N   0  0  0  0  0  0  0  0  0  0  0  0
    3.2982    1.2957    0.0001 N   0  0  0  0  0  0  0  0  0  0  0  0
    4.1076    2.1969    0.0000 N   0  0  0  0  0  0  0  0  0  0  0  0
    5.0440    2.8043   -0.0002 N   0  0  0  0  0  0  0  0  0  0  0  0
  1  2  3  0  0  0  0
  1  3  1  0  0  0  0
  2  3  4  0  0  0  0
  3  4  4  0  0  0  0
  4  5  4  0  0  0  0
  4  6  1  0  0  0  0
  5  6  3  0  0  0  0
M  CHG  1   1   1
M  END
