 xtb: 6.6.1 (8d0f1dd)
          09042616163D

  9 10  0     0  0            999 V2000
    1.2175    0.0284    0.0000 N   0  0  0  0  0  0  0  0  0  0  0  0
    0.4030    1.1491   -0.0000 N   0  0  0  0  0  0  0  0  0  0  0  0
   -0.8080    0.7320   -0.0000 N   0  0  0  0  0  0  0  0  0  0  0  0
   -0.7689   -0.5586    0.0000 N   0  0  0  0  0  0  0  0  0  0  0  0
    0.4468   -0.9946   -0.0000 N   0  0  0  0  0  0  0  0  0  0  0  0
    2.5284    0.1387   -0.0000 N   0  0  0  0  0  0  0  0  0  0  0  0
    2.9669    1.3833    0.0000 N   0  0  0  0  0  0  0  0  0  0  0  0
    2.2322    2.3940    0.0000 N   0  0  0  0  0  0  0  0  0  0  0  0
    0.9137    2.3623   -0.0000 N   0  0  0  0  0  0  0  0  0  0  0  0
  1  2  1  0  0  0  0
  2  3  4  0  0  0  0
  3  4  4  0  0  0  0
  1  5  4  0  0  0  0
  4  5  4  0  0  0  0
  1  6  1  0  0  0  0
  6  7  4  0  0  0  0
  7  8  2  0  0  0  0
  2  9  1  0  0  0  0
  8  9  4  0  0  0  0
M  END
