 xtb: 6.6.1 (8d0f1dd)
          09042616163D

  4  4  0     0  0            999 V2000
    0.8908   -0.1479    0.7514 N   0  0  0  0  0  0  0  0  0  0  0  0
   -1.0998    0.2757   -0.3974 N   0  0  0  0  0  0  0  0  0  0  0  0
   -0.0567    0.1451    0.1033 N   0  0  0  0  0  0  0  0  0  0  0  0
    1.9375   -0.2729    1.2466 N   0  0  0  0  0  0  0  0  0  0  0  0
  1  3  4  0  0  0  0
  2  3  2  0  0  0  0
  1  4  2  0  0  0  0
  2  4  1  0  0  0  0
M  END
