 xtb: 6.6.1 (8d0f1dd)
          09042616163D

  8  9  0     0  0            999 V2000
    0.6840   -0.0014    0.0008 N   0  0  0  0  0  0  0  0  0  0  0  0
    1.0780    1.2303   -0.0000 N   0  0  0  0  0  0  0  0  0  0  0  0
    0.0033    1.9339   -0.0015 N   0  0  0  0  0  0  0  0  0  0  0  0
   -1.0739    1.2341   -0.0017 N   0  0  0  0  0  0  0  0  0  0  0  0
   -0.6841    0.0012   -0.0002 N   0  0  0  0  0  0  0  0  0  0  0  0
   -1.0779   -1.2304   -0.0000 N   0  0  0  0  0  0  0  0  0  0  0  0
   -0.0033   -1.9337    0.0010 N   0  0  0  0  0  0  0  0  0  0  0  0
    1.0738   -1.2340    0.0016 N   0  0  0  0  0  0  0  0  0  0  0  0
  1  2  4  0  0  0  0
  2  3  4  0  0  0  0
  3  4  4  0  0  0  0
  1  5  1  0  0  0  0
  4  5  4  0  0  0  0
  5  6  4  0  0  0  0
  6  7  4  0  0  0  0
  1  8  4  0  0  0  0
  7  8  4  0  0  0  0
M  END
