 xtb: 6.6.1 (8d0f1dd)
          09042616163D

  8  9  0     0  0            999 V2000
    0.3854   -0.1753    0.0001 N   0  0  0  0  0  0  0  0  0  0  0  0
    1.3093    0.4715   -0.0007 N   0  0  0  0  0  0  0  0  0  0  0  0
    2.0471    1.4138   -0.0001 N   0  0  0  0  0  0  0  0  0  0  0  0
    3.3643    1.4067    0.0012 N   0  0  0  0  0  0  0  0  0  0  0  0
    3.9106    2.5447   -0.0004 N   0  0  0  0  0  0  0  0  0  0  0  0
    5.2278    2.5367   -0.0000 N   0  0  0  0  0  0  0  0  0  0  0  0
    5.9668    3.4779    0.0005 N   0  0  0  0  0  0  0  0  0  0  0  0
    6.8920    4.1232   -0.0005 N   0  0  0  0  0  0  0  0  0  0  0  0
  1  2  2  0  0  0  0
  1  3  1  0  0  0  0
  2  3  2  0  0  0  0
  3  4  1  0  0  0  0
  4  5  2  0  0  0  0
  5  6  1  0  0  0  0
  6  7  2  0  0  0  0
  6  8  1  0  0  0  0
  7  8  2  0  0  0  0
M  END
