 xtb: 6.6.1 (8d0f1dd)
          09042616163D

  8  9  0     0  0            999 V2000
    1.2656    0.0130    0.0706 N   0  0  0  0  0  0  0  0  0  0  0  0
    0.5338    1.1224    0.1084 N   0  0  0  0  0  0  0  0  0  0  0  0
   -0.6691    0.7189    0.0086 N   0  0  0  0  0  0  0  0  0  0  0  0
   -0.6942   -0.5893   -0.0879 N   0  0  0  0  0  0  0  0  0  0  0  0
    0.4947   -1.0488   -0.0516 N   0  0  0  0  0  0  0  0  0  0  0  0
    2.5907   -0.0534    0.1436 N   0  0  0  0  0  0  0  0  0  0  0  0
    3.3306    0.8840    0.2506 N   0  0  0  0  0  0  0  0  0  0  0  0
    4.1943    1.5862    0.3475 N   0  0  0  0  0  0  0  0  0  0  0  0
  1  2  4  0  0  0  0
  2  3  2  0  0  0  0
  3  4  4  0  0  0  0
  1  5  4  0  0  0  0
  4  5  4  0  0  0  0
  1  6  1  0  0  0  0
  6  7  2  0  0  0  0
  6  8  1  0  0  0  0
  7  8  2  0  0  0  0
M  END
