 xtb: 6.6.1 (8d0f1dd)
          09042616163D

  8  8  0     0  0            999 V2000
    1.5095   -0.0000    0.0000 N   0  0  0  0  0  0  0  0  0  0  0  0
    0.5962    1.1099   -0.0000 N   0  0  0  0  0  0  0  0  0  0  0  0
   -0.5962    1.1099   -0.0000 N   0  0  0  0  0  0  0  0  0  0  0  0
   -1.5095   -0.0000    0.0000 N   0  0  0  0  0  0  0  0  0  0  0  0
   -0.5962   -1.1099   -0.0000 N   0  0  0  0  0  0  0  0  0  0  0  0
    0.5962   -1.1099   -0.0000 N   0  0  0  0  0  0  0  0  0  0  0  0
    2.6678    0.0000    0.0001 N   0  0  0  0  0  0  0  0  0  0  0  0
   -2.6678    0.0000    0.0000 N   0  0  0  0  0  0  0  0  0  0  0  0
  1  2  1  0  0  0  0
  2  3  2  0  0  0  0
  3  4  1  0  0  0  0
  4  5  1  0  0  0  0
  1  6  1  0  0  0  0
  5  6  2  0  0  0  0
  1  7  2  0  0  0  0
  4  8  2  0  0  0  0
M  END
