 xtb: 6.6.1 (8d0f1dd)
          09042616163D

  7  7  0     0  0            999 V2000
    1.1996    0.1029    0.0527 N   0  0  0  0  0  0  0  0  0  0  0  0
    0.3274    1.1524   -0.0119 N   0  0  0  0  0  0  0  0  0  0  0  0
   -0.8180    0.6115   -0.0311 N   0  0  0  0  0  0  0  0  0  0  0  0
   -0.7287   -0.6852    0.0213 N   0  0  0  0  0  0  0  0  0  0  0  0
    0.4871   -1.0517    0.0541 N   0  0  0  0  0  0  0  0  0  0  0  0
    2.4665    0.1841   -0.1403 N   0  0  0  0  0  0  0  0  0  0  0  0
    3.5034    0.4405    0.2816 N   0  0  0  0  0  0  0  0  0  0  0  0
  1  2  1  0  0  0  0
  2  3  2  0  0  0  0
  3  4  4  0  0  0  0
  1  5  1  0  0  0  0
  4  5  2  0  0  0  0
  1  6  1  0  0  0  0
  6  7  2  0  0  0  0
M  END
