 xtb: 6.6.1 (8d0f1dd)
          09042616163D

  8  8  0     0  0            999 V2000
    0.4937    0.6591   -0.0001 N   0  0  0  0  0  0  0  0  0  0  0  0
    1.5223    1.3541   -0.0007 N   0  0  0  0  0  0  0  0  0  0  0  0
    2.7373    1.3536    0.0007 N   0  0  0  0  0  0  0  0  0  0  0  0
    3.7659    0.6589    0.0001 N   0  0  0  0  0  0  0  0  0  0  0  0
    0.4941   -0.6589    0.0001 N   0  0  0  0  0  0  0  0  0  0  0  0
    1.5227   -1.3536    0.0007 N   0  0  0  0  0  0  0  0  0  0  0  0
    2.7377   -1.3541   -0.0007 N   0  0  0  0  0  0  0  0  0  0  0  0
    3.7663   -0.6591   -0.0001 N   0  0  0  0  0  0  0  0  0  0  0  0
  1  2  4  0  0  0  0
  2  3  2  0  0  0  0
  3  4  4  0  0  0  0
  1  5  4  0  0  0  0
  5  6  4  0  0  0  0
  6  7  2  0  0  0  0
  4  8  4  0  0  0  0
  7  8  4  0  0  0  0
M  END
