 xtb: 6.6.1 (8d0f1dd)
          09042616163D

 10 11  0     0  0            999 V2000
    1.7956    0.7664    1.2387 N   0  0  0  0  0  0  0  0  0  0  0  0
   -2.6612   -1.2534    0.4975 N   0  0  0  0  0  0  0  0  0  0  0  0
    1.9542   -0.3766    0.9112 N   0  0  0  0  0  0  0  0  0  0  0  0
    1.8211    1.7756    1.7348 N   0  0  0  0  0  0  0  0  0  0  0  0
   -2.2033   -0.4283   -0.1147 N   0  0  0  0  0  0  0  0  0  0  0  0
    1.4745   -1.1020   -0.0922 N   0  0  0  0  0  0  0  0  0  0  0  0
    0.2184    0.4813   -1.1968 N   0  0  0  0  0  0  0  0  0  0  0  0
   -1.9779    0.5525   -0.7678 N   0  0  0  0  0  0  0  0  0  0  0  0
    0.6085   -0.6726   -0.8533 N   0  0  0  0  0  0  0  0  0  0  0  0
   -0.8802    1.0115   -1.3576 N   0  0  0  0  0  0  0  0  0  0  0  0
  1  3  2  0  0  0  0
  1  4  2  0  0  0  0
  3  4  1  0  0  0  0
  2  5  2  0  0  0  0
  3  6  1  0  0  0  0
  2  8  1  0  0  0  0
  5  8  2  0  0  0  0
  6  9  2  0  0  0  0
  7  9  4  0  0  0  0
  7 10  2  0  0  0  0
  8 10  1  0  0  0  0
M  END
