 xtb: 6.6.1 (8d0f1dd)
          09042616163D

 10 10  0     0  0            999 V2000
    0.8350   -0.0000    0.0000 N   0  0  0  0  0  0  0  0  0  0  0  0
    0.0892    1.0709   -0.0001 N   0  0  0  0  0  0  0  0  0  0  0  0
   -1.1352    0.6663   -0.0000 N   0  0  0  0  0  0  0  0  0  0  0  0
   -1.1352   -0.6663    0.0001 N   0  0  0  0  0  0  0  0  0  0  0  0
    0.0892   -1.0709   -0.0000 N   0  0  0  0  0  0  0  0  0  0  0  0
    5.1108    0.0000   -0.0001 N   0  0  0  0  0  0  0  0  0  0  0  0
    4.3568    1.0690    0.0003 N   0  0  0  0  0  0  0  0  0  0  0  0
    3.1309    0.6611   -0.0002 N   0  0  0  0  0  0  0  0  0  0  0  0
    3.1309   -0.6611    0.0002 N   0  0  0  0  0  0  0  0  0  0  0  0
    4.3568   -1.0690   -0.0002 N   0  0  0  0  0  0  0  0  0  0  0  0
  1  2  4  0  0  0  0
  2  3  4  0  0  0  0
  3  4  4  0  0  0  0
  1  5  4  0  0  0  0
  4  5  4  0  0  0  0
  6  7  4  0  0  0  0
  7  8  4  0  0  0  0
  8  9  4  0  0  0  0
  6 10  4  0  0  0  0
  9 10  4  0  0  0  0
M  CHG  1   1  -1
M  END
