 xtb: 6.6.1 (8d0f1dd)
          09042616163D

  9 10  0     0  0            999 V2000
    1.3127   -0.1035    0.0006 N   0  0  0  0  0  0  0  0  0  0  0  0
    0.3072    1.2804    0.0009 N   0  0  0  0  0  0  0  0  0  0  0  0
   -0.8158    0.7363    0.0001 N   0  0  0  0  0  0  0  0  0  0  0  0
   -0.7509   -0.5455   -0.0018 N   0  0  0  0  0  0  0  0  0  0  0  0
    0.4482   -1.0034   -0.0004 N   0  0  0  0  0  0  0  0  0  0  0  0
    2.5617    0.1335    0.0026 N   0  0  0  0  0  0  0  0  0  0  0  0
    2.9517    1.3522   -0.0018 N   0  0  0  0  0  0  0  0  0  0  0  0
    2.1982    2.3894   -0.0024 N   0  0  0  0  0  0  0  0  0  0  0  0
    0.9186    2.3951    0.0023 N   0  0  0  0  0  0  0  0  0  0  0  0
  1  2  1  0  0  0  0
  2  3  4  0  0  0  0
  3  4  4  0  0  0  0
  1  5  4  0  0  0  0
  4  5  4  0  0  0  0
  1  6  4  0  0  0  0
  6  7  4  0  0  0  0
  7  8  4  0  0  0  0
  2  9  4  0  0  0  0
  8  9  4  0  0  0  0
M  CHG  1   1   1
M  END
