 xtb: 6.6.1 (8d0f1dd)
          09042616163D

  7  6  0     0  0            999 V2000
    1.3220    2.2552    0.4716 N   0  0  0  0  0  0  0  0  0  0  0  0
   -2.3768   -0.2405    0.6371 N   0  0  0  0  0  0  0  0  0  0  0  0
    0.4252   -0.8490   -0.4903 N   0  0  0  0  0  0  0  0  0  0  0  0
    1.0544    1.2038    0.1348 N   0  0  0  0  0  0  0  0  0  0  0  0
   -1.3826    0.2164    0.4867 N   0  0  0  0  0  0  0  0  0  0  0  0
    0.2925   -1.9202   -0.8789 N   0  0  0  0  0  0  0  0  0  0  0  0
    1.2549    0.1012   -0.3599 N   0  0  0  0  0  0  0  0  0  0  0  0
  1  4  2  0  0  0  0
  2  5  3  0  0  0  0
  3  6  2  0  0  0  0
  1  7  1  0  0  0  0
  3  7  4  0  0  0  0
  4  7  4  0  0  0  0
M  END
