 xtb: 6.6.1 (8d0f1dd)
          09042616163D

 10 11  0     0  0            999 V2000
    1.7973    0.7674    1.2382 N   0  0  0  0  0  0  0  0  0  0  0  0
   -2.6642   -1.2553    0.4949 N   0  0  0  0  0  0  0  0  0  0  0  0
    1.9545   -0.3762    0.9113 N   0  0  0  0  0  0  0  0  0  0  0  0
    1.8231    1.7768    1.7340 N   0  0  0  0  0  0  0  0  0  0  0  0
   -2.2045   -0.4291   -0.1150 N   0  0  0  0  0  0  0  0  0  0  0  0
    1.4752   -1.1018   -0.0921 N   0  0  0  0  0  0  0  0  0  0  0  0
    0.2182    0.4814   -1.1955 N   0  0  0  0  0  0  0  0  0  0  0  0
   -1.9781    0.5524   -0.7666 N   0  0  0  0  0  0  0  0  0  0  0  0
    0.6086   -0.6727   -0.8530 N   0  0  0  0  0  0  0  0  0  0  0  0
   -0.8803    1.0116   -1.3560 N   0  0  0  0  0  0  0  0  0  0  0  0
  1  3  2  0  0  0  0
  1  4  2  0  0  0  0
  3  4  1  0  0  0  0
  2  5  2  0  0  0  0
  3  6  1  0  0  0  0
  2  8  1  0  0  0  0
  5  8  2  0  0  0  0
  6  9  2  0  0  0  0
  7  9  4  0  0  0  0
  7 10  2  0  0  0  0
  8 10  1  0  0  0  0
M  END
