 xtb: 6.6.1 (8d0f1dd)
          09042616163D

  8 11  0     0  0            999 V2000
    0.5506    0.0494    1.1790 N   0  0  0  0  0  0  0  0  0  0  0  0
   -0.7628    0.5634    0.9499 N   0  0  0  0  0  0  0  0  0  0  0  0
    0.9382   -1.1027    0.5784 N   0  0  0  0  0  0  0  0  0  0  0  0
    0.3608    1.2302    0.3968 N   0  0  0  0  0  0  0  0  0  0  0  0
   -1.2512    0.2603   -0.4101 N   0  0  0  0  0  0  0  0  0  0  0  0
    0.5301   -1.3565   -0.5563 N   0  0  0  0  0  0  0  0  0  0  0  0
   -0.1276    0.9265   -0.9621 N   0  0  0  0  0  0  0  0  0  0  0  0
   -0.2956   -0.4760   -1.1756 N   0  0  0  0  0  0  0  0  0  0  0  0
  1  2  1  0  0  0  0
  1  3  1  0  0  0  0
  1  4  1  0  0  0  0
  2  4  1  0  0  0  0
  2  5  1  0  0  0  0
  3  6  2  0  0  0  0
  4  7  1  0  0  0  0
  5  7  1  0  0  0  0
  5  8  1  0  0  0  0
  6  8  1  0  0  0  0
  7  8  1  0  0  0  0
M  END
