 xtb: 6.6.1 (8d0f1dd)
          09042616163D

  6  6  0     0  0            999 V2000
    1.2683    0.0004    0.2468 N   0  0  0  0  0  0  0  0  0  0  0  0
    0.5973    1.0348    0.0194 N   0  0  0  0  0  0  0  0  0  0  0  0
   -0.6298    1.1054   -0.2260 N   0  0  0  0  0  0  0  0  0  0  0  0
   -1.2715   -0.0081    0.2306 N   0  0  0  0  0  0  0  0  0  0  0  0
   -0.5973   -1.0346   -0.0193 N   0  0  0  0  0  0  0  0  0  0  0  0
    0.6330   -1.0978   -0.2515 N   0  0  0  0  0  0  0  0  0  0  0  0
  1  2  2  0  0  0  0
  2  3  2  0  0  0  0
  3  4  1  0  0  0  0
  4  5  2  0  0  0  0
  1  6  1  0  0  0  0
  5  6  2  0  0  0  0
M  END
