 xtb: 6.6.1 (8d0f1dd)
          09042616163D

  6  6  0     0  0            999 V2000
    1.1862   -0.1404    0.4931 N   0  0  0  0  0  0  0  0  0  0  0  0
    0.5379    0.9309    0.5192 N   0  0  0  0  0  0  0  0  0  0  0  0
   -0.6115    1.1370    0.0643 N   0  0  0  0  0  0  0  0  0  0  0  0
   -1.2901   -0.0403   -0.0618 N   0  0  0  0  0  0  0  0  0  0  0  0
   -0.5374   -0.9309   -0.5207 N   0  0  0  0  0  0  0  0  0  0  0  0
    0.7150   -0.9564   -0.4940 N   0  0  0  0  0  0  0  0  0  0  0  0
  1  2  2  0  0  0  0
  2  3  2  0  0  0  0
  3  4  1  0  0  0  0
  4  5  2  0  0  0  0
  1  6  1  0  0  0  0
  5  6  2  0  0  0  0
M  END
