 xtb: 6.6.1 (8d0f1dd)
          09042616163D

  8  9  0     0  0            999 V2000
    1.1925    0.0213    0.0000 N   0  0  0  0  0  0  0  0  0  0  0  0
    0.3886    1.1275    0.0000 N   0  0  0  0  0  0  0  0  0  0  0  0
   -0.8388    0.7205    0.0000 N   0  0  0  0  0  0  0  0  0  0  0  0
   -0.7742   -0.5625   -0.0000 N   0  0  0  0  0  0  0  0  0  0  0  0
    0.4260   -1.0202    0.0000 N   0  0  0  0  0  0  0  0  0  0  0  0
    2.4200    0.4283   -0.0000 N   0  0  0  0  0  0  0  0  0  0  0  0
    2.3554    1.7113    0.0000 N   0  0  0  0  0  0  0  0  0  0  0  0
    1.1552    2.1690   -0.0000 N   0  0  0  0  0  0  0  0  0  0  0  0
  1  2  1  0  0  0  0
  2  3  4  0  0  0  0
  3  4  4  0  0  0  0
  1  5  4  0  0  0  0
  4  5  4  0  0  0  0
  1  6  4  0  0  0  0
  6  7  4  0  0  0  0
  2  8  4  0  0  0  0
  7  8  4  0  0  0  0
M  END
