 xtb: 6.6.1 (8d0f1dd)
          09042616163D

 12 14  0     0  0            999 V2000
    1.3451    0.0671   -0.0827 N   0  0  0  0  0  0  0  0  0  0  0  0
    0.4150    1.0876    0.1690 N   0  0  0  0  0  0  0  0  0  0  0  0
   -0.6622    0.5031    0.4105 N   0  0  0  0  0  0  0  0  0  0  0  0
   -0.5378   -0.7898    0.3454 N   0  0  0  0  0  0  0  0  0  0  0  0
    0.6280   -1.1320    0.0556 N   0  0  0  0  0  0  0  0  0  0  0  0
    7.4210    0.0033    0.3323 N   0  0  0  0  0  0  0  0  0  0  0  0
    6.9224    1.0634    0.0669 N   0  0  0  0  0  0  0  0  0  0  0  0
    5.5276    0.8468   -0.1691 N   0  0  0  0  0  0  0  0  0  0  0  0
    5.4182   -0.5113   -0.6766 N   0  0  0  0  0  0  0  0  0  0  0  0
    6.3963   -0.9898    0.2924 N   0  0  0  0  0  0  0  0  0  0  0  0
    2.5065    0.1912   -0.3604 N   0  0  0  0  0  0  0  0  0  0  0  0
    5.1612   -0.2978    0.6476 N   0  0  0  0  0  0  0  0  0  0  0  0
  1  2  1  0  0  0  0
  2  3  2  0  0  0  0
  3  4  4  0  0  0  0
  1  5  1  0  0  0  0
  4  5  2  0  0  0  0
  6  7  2  0  0  0  0
  7  8  1  0  0  0  0
  8  9  1  0  0  0  0
  6 10  1  0  0  0  0
  9 10  1  0  0  0  0
  1 11  2  0  0  0  0
  8 12  1  0  0  0  0
  9 12  1  0  0  0  0
 10 12  1  0  0  0  0
M  END
